115358
  -OEChem-08282305123D

 61 63  0     1  0  0  0  0  0999 V2000
   -4.9294    2.2038    2.6736 F   0  0  0  0  0  0  0  0  0  0  0  0
   -3.7799    0.4632    3.2674 F   0  0  0  0  0  0  0  0  0  0  0  0
   -2.7667    2.2040    2.4475 F   0  0  0  0  0  0  0  0  0  0  0  0
   -2.1273   -1.2852   -1.4011 O   0  0  0  0  0  0  0  0  0  0  0  0
   -1.3680    1.1060   -2.4382 O   0  0  0  0  0  0  0  0  0  0  0  0
    2.9531   -3.8351    1.4787 O   0  0  0  0  0  0  0  0  0  0  0  0
    3.0584    0.5121   -0.7883 N   0  0  0  0  0  0  0  0  0  0  0  0
    2.3588   -1.9320    0.2930 N   0  0  0  0  0  0  0  0  0  0  0  0
    5.6942    2.9326    3.0111 N   0  0  0  0  0  0  0  0  0  0  0  0
    3.4898    1.7835   -1.3312 C   0  0  1  0  0  0  0  0  0  0  0  0
    4.7658    2.2582   -0.6229 C   0  0  0  0  0  0  0  0  0  0  0  0
    4.5838    2.3854    0.8947 C   0  0  0  0  0  0  0  0  0  0  0  0
    1.7713    0.0223   -0.9182 C   0  0  0  0  0  0  0  0  0  0  0  0
    3.7269    1.6179   -2.8287 C   0  0  0  0  0  0  0  0  0  0  0  0
    1.4331   -1.2108   -0.3674 C   0  0  0  0  0  0  0  0  0  0  0  0
    0.1079   -1.6672   -0.5257 C   0  0  0  0  0  0  0  0  0  0  0  0
    5.8903    2.7968    1.5725 C   0  0  0  0  0  0  0  0  0  0  0  0
    0.8366    0.7965   -1.6100 C   0  0  0  0  0  0  0  0  0  0  0  0
   -0.8324   -0.8886   -1.2215 C   0  0  0  0  0  0  0  0  0  0  0  0
   -0.2329   -2.9085    0.0280 C   0  0  0  0  0  0  0  0  0  0  0  0
   -0.4669    0.3408   -1.7622 C   0  0  0  0  0  0  0  0  0  0  0  0
    0.7188   -3.6538    0.7092 C   0  0  0  0  0  0  0  0  0  0  0  0
    1.9892   -3.1248    0.8126 C   0  0  0  0  0  0  0  0  0  0  0  0
   -1.5973   -3.5184   -0.0594 C   0  0  0  0  0  0  0  0  0  0  0  0
   -3.1210   -0.4731   -0.8871 C   0  0  0  0  0  0  0  0  0  0  0  0
   -3.0002    0.0467    0.4016 C   0  0  0  0  0  0  0  0  0  0  0  0
   -0.9024    2.3506   -2.9568 C   0  0  0  0  0  0  0  0  0  0  0  0
   -4.2449   -0.1740   -1.6572 C   0  0  0  0  0  0  0  0  0  0  0  0
   -4.0034    0.8653    0.9203 C   0  0  0  0  0  0  0  0  0  0  0  0
   -5.2481    0.6448   -1.1386 C   0  0  0  0  0  0  0  0  0  0  0  0
   -5.1273    1.1645    0.1501 C   0  0  0  0  0  0  0  0  0  0  0  0
    4.2450   -3.2444    1.5559 C   0  0  0  0  0  0  0  0  0  0  0  0
   -3.8748    1.4209    2.2981 C   0  0  0  0  0  0  0  0  0  0  0  0
    2.7490    2.5713   -1.1500 H   0  0  0  0  0  0  0  0  0  0  0  0
    5.0760    3.2262   -1.0361 H   0  0  0  0  0  0  0  0  0  0  0  0
    5.5818    1.5513   -0.8235 H   0  0  0  0  0  0  0  0  0  0  0  0
    3.7549   -0.1047   -0.3837 H   0  0  0  0  0  0  0  0  0  0  0  0
    3.8031    3.1273    1.1051 H   0  0  0  0  0  0  0  0  0  0  0  0
    4.2472    1.4333    1.3219 H   0  0  0  0  0  0  0  0  0  0  0  0
    2.8366    1.3037   -3.3798 H   0  0  0  0  0  0  0  0  0  0  0  0
    4.0645    2.5631   -3.2679 H   0  0  0  0  0  0  0  0  0  0  0  0
    4.5030    0.8677   -3.0219 H   0  0  0  0  0  0  0  0  0  0  0  0
    6.6684    2.0496    1.3814 H   0  0  0  0  0  0  0  0  0  0  0  0
    6.2391    3.7532    1.1686 H   0  0  0  0  0  0  0  0  0  0  0  0
    1.1265    1.7533   -2.0142 H   0  0  0  0  0  0  0  0  0  0  0  0
    0.4893   -4.6179    1.1511 H   0  0  0  0  0  0  0  0  0  0  0  0
   -1.6205   -4.5192    0.3895 H   0  0  0  0  0  0  0  0  0  0  0  0
   -1.9047   -3.6596   -1.1004 H   0  0  0  0  0  0  0  0  0  0  0  0
   -2.3313   -2.9272    0.4948 H   0  0  0  0  0  0  0  0  0  0  0  0
    5.3972    2.0399    3.4031 H   0  0  0  0  0  0  0  0  0  0  0  0
    6.5844    3.1568    3.4537 H   0  0  0  0  0  0  0  0  0  0  0  0
   -2.1397   -0.1886    1.0229 H   0  0  0  0  0  0  0  0  0  0  0  0
   -1.7505    2.8212   -3.4656 H   0  0  0  0  0  0  0  0  0  0  0  0
   -0.1222    2.2096   -3.7128 H   0  0  0  0  0  0  0  0  0  0  0  0
   -0.5981    3.0346   -2.1571 H   0  0  0  0  0  0  0  0  0  0  0  0
   -4.3436   -0.5759   -2.6618 H   0  0  0  0  0  0  0  0  0  0  0  0
   -6.1228    0.8777   -1.7386 H   0  0  0  0  0  0  0  0  0  0  0  0
   -5.9191    1.8003    0.5364 H   0  0  0  0  0  0  0  0  0  0  0  0
    4.8943   -3.9263    2.1131 H   0  0  0  0  0  0  0  0  0  0  0  0
    4.2104   -2.2932    2.0978 H   0  0  0  0  0  0  0  0  0  0  0  0
    4.6752   -3.1088    0.5579 H   0  0  0  0  0  0  0  0  0  0  0  0
  1 33  1  0  0  0  0
  2 33  1  0  0  0  0
  3 33  1  0  0  0  0
  4 19  1  0  0  0  0
  4 25  1  0  0  0  0
  5 21  1  0  0  0  0
  5 27  1  0  0  0  0
  6 23  1  0  0  0  0
  6 32  1  0  0  0  0
  7 10  1  0  0  0  0
  7 13  1  0  0  0  0
  7 37  1  0  0  0  0
  8 15  1  0  0  0  0
  8 23  2  0  0  0  0
  9 17  1  0  0  0  0
  9 50  1  0  0  0  0
  9 51  1  0  0  0  0
 10 11  1  0  0  0  0
 10 14  1  0  0  0  0
 10 34  1  0  0  0  0
 11 12  1  0  0  0  0
 11 35  1  0  0  0  0
 11 36  1  0  0  0  0
 12 17  1  0  0  0  0
 12 38  1  0  0  0  0
 12 39  1  0  0  0  0
 13 15  1  0  0  0  0
 13 18  2  0  0  0  0
 14 40  1  0  0  0  0
 14 41  1  0  0  0  0
 14 42  1  0  0  0  0
 15 16  2  0  0  0  0
 16 19  1  0  0  0  0
 16 20  1  0  0  0  0
 17 43  1  0  0  0  0
 17 44  1  0  0  0  0
 18 21  1  0  0  0  0
 18 45  1  0  0  0  0
 19 21  2  0  0  0  0
 20 22  2  0  0  0  0
 20 24  1  0  0  0  0
 22 23  1  0  0  0  0
 22 46  1  0  0  0  0
 24 47  1  0  0  0  0
 24 48  1  0  0  0  0
 24 49  1  0  0  0  0
 25 26  1  0  0  0  0
 25 28  2  0  0  0  0
 26 29  2  0  0  0  0
 26 52  1  0  0  0  0
 27 53  1  0  0  0  0
 27 54  1  0  0  0  0
 27 55  1  0  0  0  0
 28 30  1  0  0  0  0
 28 56  1  0  0  0  0
 29 31  1  0  0  0  0
 29 33  1  0  0  0  0
 30 31  2  0  0  0  0
 30 57  1  0  0  0  0
 31 58  1  0  0  0  0
 32 59  1  0  0  0  0
 32 60  1  0  0  0  0
 32 61  1  0  0  0  0
M  END
> <PUBCHEM_COMPOUND_CID>
115358

> <PUBCHEM_CONFORMER_RMSD>
1

> <PUBCHEM_CONFORMER_DIVERSEORDER>
1
22
114
122
99
57
56
101
96
52
102
24
77
85
112
54
113
129
64
119
88
92
68
16
84
120
108
105
72
81
61
59
125
62
111
117
130
100
51
80
127
74
89
58
121
95
69
123
53
98
55
31
103
91
48
49
94
71
107
26
20
46
132
109
124
50
66
33
30
128
14
78
83
73
65
45
18
43
93
29
38
126
40
86
118
47
79
116
104
8
39
11
115
10
63
82
42
90
110
44
75
25
23
70
106
87
7
41
60
21
4
2
19
67
28
36
97
3
15
6
13
35
27
131
37
12
34
76
17
5
32
9

> <PUBCHEM_MMFF94_PARTIAL_CHARGES>
38
1 -0.34
10 0.37
13 0.1
15 0.31
17 0.27
18 -0.15
19 0.08
2 -0.34
20 -0.14
21 0.08
22 -0.15
23 0.39
24 0.14
25 0.08
26 -0.15
27 0.28
28 -0.15
29 -0.14
3 -0.34
30 -0.15
31 -0.15
32 0.28
33 1.16
37 0.4
4 -0.17
45 0.15
46 0.15
5 -0.36
50 0.36
51 0.36
52 0.15
56 0.15
57 0.15
58 0.15
6 -0.36
7 -0.87
8 -0.62
9 -0.99

> <PUBCHEM_EFFECTIVE_ROTOR_COUNT>
10

> <PUBCHEM_PHARMACOPHORE_FEATURES>
9
1 4 acceptor
1 5 acceptor
1 7 cation
1 7 donor
1 9 cation
1 9 donor
6 13 15 16 18 19 21 rings
6 25 26 28 29 30 31 rings
6 8 15 16 20 22 23 rings

> <PUBCHEM_HEAVY_ATOM_COUNT>
33

> <PUBCHEM_ATOM_DEF_STEREO_COUNT>
0

> <PUBCHEM_ATOM_UDEF_STEREO_COUNT>
1

> <PUBCHEM_BOND_DEF_STEREO_COUNT>
0

> <PUBCHEM_BOND_UDEF_STEREO_COUNT>
0

> <PUBCHEM_ISOTOPIC_ATOM_COUNT>
0

> <PUBCHEM_COMPONENT_COUNT>
1

> <PUBCHEM_CACTVS_TAUTO_COUNT>
1

> <PUBCHEM_CONFORMER_ID>
0001C29E00000001

> <PUBCHEM_MMFF94_ENERGY>
116.8436

> <PUBCHEM_FEATURE_SELFOVERLAP>
45.708

> <PUBCHEM_SHAPE_FINGERPRINT>
10556698 54 13181899091609709641
11578080 2 18123440866535284597
12390115 104 18118985808321604556
12422481 6 17676757747868856072
12655364 131 18189590844383797042
12717326 68 16881627346667161730
12788726 201 17469335089500296606
13140716 1 18114179726685312399
13383661 66 9217811321597218968
13726171 33 16988578900417256433
13782708 43 10738101630477077572
14295345 954 17972300833638429324
14705955 166 17550090903272706336
14739800 52 17917135183030169272
14790565 3 17823996716634881180
14955137 171 17903646181276402854
15475509 8 17840607911349579246
16067690 210 17489319580580928569
17913733 40 18335406972694682324
19438510 23 17774728657488170728
20642791 268 17984417434680839463
21756936 100 18057349303618372111
21796203 349 17828506677415063794
22182313 1 17532351103096309094
23536364 44 11959192752113631909
23559900 14 15936986119388301935
283562 15 17757557730052229511
2838139 119 17203337723162259004
350125 39 18042962086821633654
4112364 45 18127421051362094833
469060 322 17825403022746530467
5171179 24 17972300829337700094
563151 74 18334581213940312493
6679774 75 17385438839714176242

> <PUBCHEM_SHAPE_MULTIPOLES>
624.75
11.65
4.67
3.05
3.36
4.92
-1.74
-10.62
-7.5
5.72
-1.56
-0.72
-3.12
-1.05

> <PUBCHEM_SHAPE_SELFOVERLAP>
1340.957

> <PUBCHEM_SHAPE_VOLUME>
349.4

> <PUBCHEM_COORDINATE_TYPE>
2
5
10

$$$$
